
     RDKit          3D

 65 67  0  0  0  0  0  0  0  0999 V2000
   15.6500  -16.0220    7.3270 H   0  0  0  0  0  0  0  0  0  0  0  0
   16.0180  -15.2550    7.7940 N   0  0  0  0  0  0  0  0  0  0  0  0
   16.9350  -15.4240    8.7030 C   0  0  0  0  0  0  0  0  0  0  0  0
   17.3840  -16.6910    9.0010 N   0  0  0  0  0  0  0  0  0  0  0  0
   17.4960  -14.2520    9.4140 C   0  0  0  0  0  0  0  0  0  0  0  0
   18.8770  -14.0880    9.5120 C   0  0  0  0  0  0  0  0  0  0  0  0
   19.3940  -12.9910   10.1710 C   0  0  0  0  0  0  0  0  0  0  0  0
   18.5450  -12.0620   10.7450 C   0  0  0  0  0  0  0  0  0  0  0  0
   19.1160  -10.8700   11.4700 C   0  0  0  0  0  0  0  0  0  0  0  0
   18.4640  -10.7340   12.7740 N   0  0  0  0  0  0  0  0  0  0  0  0
   19.1060  -11.1270   13.8920 C   0  0  0  0  0  0  0  0  0  0  0  0
   20.2240  -11.5930   13.8180 O   0  0  0  0  0  0  0  0  0  0  0  0
   18.4350  -10.9930   15.2340 C   0  0  2  0  0  0  0  0  0  0  0  0
   19.4340  -11.3140   16.3730 C   0  0  0  0  0  0  0  0  0  0  0  0
   18.4770  -11.7390   17.5180 C   0  0  0  0  0  0  0  0  0  0  0  0
   17.3450  -12.4720   16.7680 C   0  0  0  0  0  0  0  0  0  0  0  0
   17.3650  -11.9990   15.3760 N   0  0  0  0  0  0  0  0  0  0  0  0
   16.5430  -12.4150   14.3920 C   0  0  0  0  0  0  0  0  0  0  0  0
   15.8210  -11.6200   13.8290 O   0  0  0  0  0  0  0  0  0  0  0  0
   16.5200  -13.8680   13.9930 C   0  0  0  0  0  0  0  0  0  0  0  0
   17.8950  -14.3390   13.7820 N   0  0  0  0  0  0  0  0  0  0  0  0
   17.9160  -15.7660   13.4380 C   0  0  0  0  0  0  0  0  0  0  0  0
   17.6950  -16.5990   14.7020 C   0  0  0  0  0  0  0  0  0  0  0  0
   18.3120  -15.8780   15.9020 C   0  0  0  0  0  0  0  0  0  0  0  0
   19.7590  -16.3390   16.0840 C   0  0  0  0  0  0  0  0  0  0  0  0
   20.7020  -15.2160   15.6180 C   0  0  0  0  0  0  0  0  0  0  0  0
   21.2520  -15.5520   14.2310 C   0  0  0  0  0  0  0  0  0  0  0  0
   20.2880  -15.0340   13.1620 C   0  0  0  0  0  0  0  0  0  0  0  0
   19.2700  -16.1240   12.8220 C   0  0  0  0  0  0  0  0  0  0  0  0
   17.1740  -12.2200   10.6510 C   0  0  0  0  0  0  0  0  0  0  0  0
   16.6450  -13.3090    9.9900 C   0  0  0  0  0  0  0  0  0  0  0  0
   18.0670  -16.8160    9.6790 H   0  0  0  0  0  0  0  0  0  0  0  0
   17.0170  -17.4580    8.5350 H   0  0  0  0  0  0  0  0  0  0  0  0
   19.5533  -14.8315    9.0650 H   0  0  0  0  0  0  0  0  0  0  0  0
   20.4834  -12.8552   10.2399 H   0  0  0  0  0  0  0  0  0  0  0  0
   20.1974  -11.0116   11.6136 H   0  0  0  0  0  0  0  0  0  0  0  0
   18.9411   -9.9609   10.8758 H   0  0  0  0  0  0  0  0  0  0  0  0
   17.5700  -10.3620   12.8340 H   0  0  0  0  0  0  0  0  0  0  0  0
   18.0507   -9.9642   15.2962 H   0  0  0  0  0  0  0  0  0  0  0  0
   20.1127  -12.1330   16.0925 H   0  0  0  0  0  0  0  0  0  0  0  0
   20.0991  -10.4774   16.6334 H   0  0  0  0  0  0  0  0  0  0  0  0
   18.9823  -12.4116   18.2267 H   0  0  0  0  0  0  0  0  0  0  0  0
   18.1200  -10.8920   18.1222 H   0  0  0  0  0  0  0  0  0  0  0  0
   17.5148  -13.5584   16.7989 H   0  0  0  0  0  0  0  0  0  0  0  0
   16.3709  -12.2657   17.2354 H   0  0  0  0  0  0  0  0  0  0  0  0
   16.0479  -14.4600   14.7909 H   0  0  0  0  0  0  0  0  0  0  0  0
   15.9456  -13.9838   13.0621 H   0  0  0  0  0  0  0  0  0  0  0  0
   18.3610  -13.7890   13.0740 H   0  0  0  0  0  0  0  0  0  0  0  0
   17.1163  -15.9792   12.7134 H   0  0  0  0  0  0  0  0  0  0  0  0
   16.6160  -16.7323   14.8693 H   0  0  0  0  0  0  0  0  0  0  0  0
   18.1714  -17.5830   14.5807 H   0  0  0  0  0  0  0  0  0  0  0  0
   18.2922  -14.7921   15.7274 H   0  0  0  0  0  0  0  0  0  0  0  0
   17.7349  -16.1139   16.8083 H   0  0  0  0  0  0  0  0  0  0  0  0
   19.9452  -16.5610   17.1452 H   0  0  0  0  0  0  0  0  0  0  0  0
   19.9385  -17.2471   15.4897 H   0  0  0  0  0  0  0  0  0  0  0  0
   20.1472  -14.2673   15.5721 H   0  0  0  0  0  0  0  0  0  0  0  0
   21.5360  -15.1202   16.3288 H   0  0  0  0  0  0  0  0  0  0  0  0
   22.2348  -15.0753   14.1007 H   0  0  0  0  0  0  0  0  0  0  0  0
   21.3579  -16.6424   14.1324 H   0  0  0  0  0  0  0  0  0  0  0  0
   19.7614  -14.1463   13.5423 H   0  0  0  0  0  0  0  0  0  0  0  0
   20.8535  -14.7655   12.2575 H   0  0  0  0  0  0  0  0  0  0  0  0
   19.1670  -16.2018   11.7296 H   0  0  0  0  0  0  0  0  0  0  0  0
   19.6144  -17.0871   13.2269 H   0  0  0  0  0  0  0  0  0  0  0  0
   16.5037  -11.4751   11.1047 H   0  0  0  0  0  0  0  0  0  0  0  0
   15.5545  -13.4334    9.9173 H   0  0  0  0  0  0  0  0  0  0  0  0
  1  2  1  0
  2  3  2  0
  3  4  1  0
  3  5  1  0
  5  6  2  0
  6  7  1  0
  7  8  2  0
  8  9  1  0
  9 10  1  0
 10 11  1  0
 11 12  2  0
 11 13  1  0
 13 14  1  0
 14 15  1  0
 15 16  1  0
 16 17  1  0
 17 18  1  0
 18 19  2  0
 18 20  1  0
 20 21  1  0
 21 22  1  0
 22 23  1  0
 23 24  1  0
 24 25  1  0
 25 26  1  0
 26 27  1  0
 27 28  1  0
 28 29  1  0
  8 30  1  0
 30 31  2  0
 31  5  1  0
 17 13  1  0
 29 22  1  0
  4 32  1  0
  4 33  1  0
  6 34  1  0
  7 35  1  0
  9 36  1  0
  9 37  1  0
 10 38  1  0
 13 39  1  1
 14 40  1  0
 14 41  1  0
 15 42  1  0
 15 43  1  0
 16 44  1  0
 16 45  1  0
 20 46  1  0
 20 47  1  0
 21 48  1  0
 22 49  1  0
 23 50  1  0
 23 51  1  0
 24 52  1  0
 24 53  1  0
 25 54  1  0
 25 55  1  0
 26 56  1  0
 26 57  1  0
 27 58  1  0
 27 59  1  0
 28 60  1  0
 28 61  1  0
 29 62  1  0
 29 63  1  0
 30 64  1  0
 31 65  1  0
M  END
$$$$

     RDKit          3D

 65 67  0  0  0  0  0  0  0  0999 V2000
   18.4940   -3.2870    5.1120 H   0  0  0  0  0  0  0  0  0  0  0  0
   18.0920   -3.4360    5.9830 N   0  0  0  0  0  0  0  0  0  0  0  0
   18.8480   -3.5820    7.0320 C   0  0  0  0  0  0  0  0  0  0  0  0
   20.2180   -3.5270    6.9070 N   0  0  0  0  0  0  0  0  0  0  0  0
   18.2340   -3.8080    8.3610 C   0  0  0  0  0  0  0  0  0  0  0  0
   16.9160   -3.4200    8.5980 C   0  0  0  0  0  0  0  0  0  0  0  0
   16.3460   -3.6390    9.8360 C   0  0  0  0  0  0  0  0  0  0  0  0
   17.0850   -4.2300   10.8450 C   0  0  0  0  0  0  0  0  0  0  0  0
   16.4600   -4.4600   12.1970 C   0  0  0  0  0  0  0  0  0  0  0  0
   16.0010   -5.8470   12.2940 N   0  0  0  0  0  0  0  0  0  0  0  0
   16.1960   -6.5440   13.4310 C   0  0  0  0  0  0  0  0  0  0  0  0
   16.7530   -6.0220   14.3740 O   0  0  0  0  0  0  0  0  0  0  0  0
   15.7280   -7.9730   13.5290 C   0  0  2  0  0  0  0  0  0  0  0  0
   15.2700   -8.2930   14.9730 C   0  0  0  0  0  0  0  0  0  0  0  0
   15.4480   -9.8330   15.0230 C   0  0  0  0  0  0  0  0  0  0  0  0
   16.7070  -10.0640   14.1590 C   0  0  0  0  0  0  0  0  0  0  0  0
   16.8480   -8.8980   13.2740 N   0  0  0  0  0  0  0  0  0  0  0  0
   17.8370   -8.7080   12.3780 C   0  0  0  0  0  0  0  0  0  0  0  0
   18.4060   -7.6380   12.3220 O   0  0  0  0  0  0  0  0  0  0  0  0
   18.2360   -9.8230   11.4470 C   0  0  0  0  0  0  0  0  0  0  0  0
   19.4720  -10.4490   11.9340 N   0  0  0  0  0  0  0  0  0  0  0  0
   19.7480  -11.7000   11.2160 C   0  0  0  0  0  0  0  0  0  0  0  0
   20.8230  -11.4530   10.1560 C   0  0  0  0  0  0  0  0  0  0  0  0
   21.7640  -12.6580   10.0930 C   0  0  0  0  0  0  0  0  0  0  0  0
   21.4570  -13.4790    8.8390 C   0  0  0  0  0  0  0  0  0  0  0  0
   20.3760  -14.5190    9.1940 C   0  0  0  0  0  0  0  0  0  0  0  0
   19.8700  -14.2580   10.6140 C   0  0  0  0  0  0  0  0  0  0  0  0
   18.4390  -13.7220   10.5540 C   0  0  0  0  0  0  0  0  0  0  0  0
   18.4670  -12.1920   10.5390 C   0  0  0  0  0  0  0  0  0  0  0  0
   18.3930   -4.6170   10.6160 C   0  0  0  0  0  0  0  0  0  0  0  0
   18.9710   -4.4090    9.3800 C   0  0  0  0  0  0  0  0  0  0  0  0
   20.7820   -3.6370    7.6890 H   0  0  0  0  0  0  0  0  0  0  0  0
   20.6200   -3.3790    6.0370 H   0  0  0  0  0  0  0  0  0  0  0  0
   16.3311   -2.9400    7.7995 H   0  0  0  0  0  0  0  0  0  0  0  0
   15.3027   -3.3431   10.0204 H   0  0  0  0  0  0  0  0  0  0  0  0
   17.2044   -4.2645   12.9829 H   0  0  0  0  0  0  0  0  0  0  0  0
   15.6040   -3.7811   12.3250 H   0  0  0  0  0  0  0  0  0  0  0  0
   15.5560   -6.2640   11.5390 H   0  0  0  0  0  0  0  0  0  0  0  0
   14.9142   -8.0933   12.7988 H   0  0  0  0  0  0  0  0  0  0  0  0
   15.9066   -7.7911   15.7165 H   0  0  0  0  0  0  0  0  0  0  0  0
   14.2499   -7.9528   15.2045 H   0  0  0  0  0  0  0  0  0  0  0  0
   15.6073  -10.1795   16.0548 H   0  0  0  0  0  0  0  0  0  0  0  0
   14.5669  -10.3837   14.6620 H   0  0  0  0  0  0  0  0  0  0  0  0
   17.5939  -10.1576   14.8030 H   0  0  0  0  0  0  0  0  0  0  0  0
   16.6132  -10.9899   13.5725 H   0  0  0  0  0  0  0  0  0  0  0  0
   17.4339  -10.5749   11.4105 H   0  0  0  0  0  0  0  0  0  0  0  0
   18.4037   -9.4164   10.4388 H   0  0  0  0  0  0  0  0  0  0  0  0
   20.2520   -9.8110   11.8630 H   0  0  0  0  0  0  0  0  0  0  0  0
   20.1026  -12.4608   11.9270 H   0  0  0  0  0  0  0  0  0  0  0  0
   20.3451  -11.3094    9.1757 H   0  0  0  0  0  0  0  0  0  0  0  0
   21.3975  -10.5527   10.4194 H   0  0  0  0  0  0  0  0  0  0  0  0
   22.8062  -12.3080   10.0562 H   0  0  0  0  0  0  0  0  0  0  0  0
   21.6190  -13.2838   10.9859 H   0  0  0  0  0  0  0  0  0  0  0  0
   21.0884  -12.8167    8.0418 H   0  0  0  0  0  0  0  0  0  0  0  0
   22.3674  -13.9845    8.4847 H   0  0  0  0  0  0  0  0  0  0  0  0
   19.5393  -14.4360    8.4847 H   0  0  0  0  0  0  0  0  0  0  0  0
   20.8045  -15.5304    9.1357 H   0  0  0  0  0  0  0  0  0  0  0  0
   19.8864  -15.1965   11.1875 H   0  0  0  0  0  0  0  0  0  0  0  0
   20.5189  -13.5175   11.1045 H   0  0  0  0  0  0  0  0  0  0  0  0
   17.9482  -14.0886    9.6404 H   0  0  0  0  0  0  0  0  0  0  0  0
   17.8802  -14.0697   11.4354 H   0  0  0  0  0  0  0  0  0  0  0  0
   18.4412  -11.8347    9.4990 H   0  0  0  0  0  0  0  0  0  0  0  0
   17.5925  -11.8034   11.0813 H   0  0  0  0  0  0  0  0  0  0  0  0
   18.9738   -5.0916   11.4206 H   0  0  0  0  0  0  0  0  0  0  0  0
   20.0115   -4.7170    9.1995 H   0  0  0  0  0  0  0  0  0  0  0  0
  1  2  1  0
  2  3  2  0
  3  4  1  0
  3  5  1  0
  5  6  2  0
  6  7  1  0
  7  8  2  0
  8  9  1  0
  9 10  1  0
 10 11  1  0
 11 12  2  0
 11 13  1  0
 13 14  1  0
 14 15  1  0
 15 16  1  0
 16 17  1  0
 17 18  1  0
 18 19  2  0
 18 20  1  0
 20 21  1  0
 21 22  1  0
 22 23  1  0
 23 24  1  0
 24 25  1  0
 25 26  1  0
 26 27  1  0
 27 28  1  0
 28 29  1  0
  8 30  1  0
 30 31  2  0
 31  5  1  0
 17 13  1  0
 29 22  1  0
  4 32  1  0
  4 33  1  0
  6 34  1  0
  7 35  1  0
  9 36  1  0
  9 37  1  0
 10 38  1  0
 13 39  1  6
 14 40  1  0
 14 41  1  0
 15 42  1  0
 15 43  1  0
 16 44  1  0
 16 45  1  0
 20 46  1  0
 20 47  1  0
 21 48  1  0
 22 49  1  0
 23 50  1  0
 23 51  1  0
 24 52  1  0
 24 53  1  0
 25 54  1  0
 25 55  1  0
 26 56  1  0
 26 57  1  0
 27 58  1  0
 27 59  1  0
 28 60  1  0
 28 61  1  0
 29 62  1  0
 29 63  1  0
 30 64  1  0
 31 65  1  0
M  END
$$$$

     RDKit          3D

 65 67  0  0  0  0  0  0  0  0999 V2000
   15.4810  -16.0370    7.3560 H   0  0  0  0  0  0  0  0  0  0  0  0
   15.8570  -15.2850    7.8400 N   0  0  0  0  0  0  0  0  0  0  0  0
   16.9410  -15.4410    8.5440 C   0  0  0  0  0  0  0  0  0  0  0  0
   17.5550  -16.6730    8.6010 N   0  0  0  0  0  0  0  0  0  0  0  0
   17.5150  -14.2930    9.2830 C   0  0  0  0  0  0  0  0  0  0  0  0
   16.6800  -13.4250    9.9850 C   0  0  0  0  0  0  0  0  0  0  0  0
   17.2200  -12.3600   10.6770 C   0  0  0  0  0  0  0  0  0  0  0  0
   18.5870  -12.1470   10.6650 C   0  0  0  0  0  0  0  0  0  0  0  0
   19.1710  -10.9780   11.4170 C   0  0  0  0  0  0  0  0  0  0  0  0
   20.4560  -11.3660   12.0020 N   0  0  0  0  0  0  0  0  0  0  0  0
   21.4140  -10.4390   12.2000 C   0  0  0  0  0  0  0  0  0  0  0  0
   21.2110   -9.2820   11.8950 O   0  0  0  0  0  0  0  0  0  0  0  0
   22.7380  -10.8390   12.7970 C   0  0  2  0  0  0  0  0  0  0  0  0
   23.3390  -12.0390   12.0220 C   0  0  0  0  0  0  0  0  0  0  0  0
   24.2690  -12.6670   13.0930 C   0  0  0  0  0  0  0  0  0  0  0  0
   23.4850  -12.4470   14.4040 C   0  0  0  0  0  0  0  0  0  0  0  0
   22.5530  -11.3340   14.1740 N   0  0  0  0  0  0  0  0  0  0  0  0
   21.6740  -10.8460   15.0720 C   0  0  0  0  0  0  0  0  0  0  0  0
   21.7610   -9.6950   15.4410 O   0  0  0  0  0  0  0  0  0  0  0  0
   20.5840  -11.7320   15.6180 C   0  0  0  0  0  0  0  0  0  0  0  0
   19.6110  -12.0220   14.5560 N   0  0  0  0  0  0  0  0  0  0  0  0
   19.0920  -13.3900   14.6760 C   0  0  0  0  0  0  0  0  0  0  0  0
   18.3910  -13.5530   16.0260 C   0  0  0  0  0  0  0  0  0  0  0  0
   18.1770  -15.0410   16.3140 C   0  0  0  0  0  0  0  0  0  0  0  0
   17.1940  -15.6200   15.2960 C   0  0  0  0  0  0  0  0  0  0  0  0
   17.9660  -16.4340   14.2240 C   0  0  0  0  0  0  0  0  0  0  0  0
   18.5280  -15.4990   13.1520 C   0  0  0  0  0  0  0  0  0  0  0  0
   20.0290  -15.3080   13.3790 C   0  0  0  0  0  0  0  0  0  0  0  0
   20.2500  -14.3860   14.5790 C   0  0  0  0  0  0  0  0  0  0  0  0
   19.4210  -13.0050    9.9710 C   0  0  0  0  0  0  0  0  0  0  0  0
   18.8920  -14.0760    9.2800 C   0  0  0  0  0  0  0  0  0  0  0  0
   18.3620  -16.7890    9.1260 H   0  0  0  0  0  0  0  0  0  0  0  0
   17.1780  -17.4250    8.1170 H   0  0  0  0  0  0  0  0  0  0  0  0
   15.5923  -13.5887    9.9874 H   0  0  0  0  0  0  0  0  0  0  0  0
   16.5629  -11.6798   11.2387 H   0  0  0  0  0  0  0  0  0  0  0  0
   19.3224  -10.1360   10.7255 H   0  0  0  0  0  0  0  0  0  0  0  0
   18.4802  -10.6755   12.2178 H   0  0  0  0  0  0  0  0  0  0  0  0
   20.6190  -12.2920   12.2450 H   0  0  0  0  0  0  0  0  0  0  0  0
   23.3862   -9.9512   12.7578 H   0  0  0  0  0  0  0  0  0  0  0  0
   22.5569  -12.7449   11.7057 H   0  0  0  0  0  0  0  0  0  0  0  0
   23.8537  -11.7583   11.0912 H   0  0  0  0  0  0  0  0  0  0  0  0
   24.4260  -13.7387   12.9011 H   0  0  0  0  0  0  0  0  0  0  0  0
   25.2748  -12.2220   13.1090 H   0  0  0  0  0  0  0  0  0  0  0  0
   22.9265  -13.3577   14.6660 H   0  0  0  0  0  0  0  0  0  0  0  0
   24.1698  -12.2166   15.2335 H   0  0  0  0  0  0  0  0  0  0  0  0
   21.0233  -12.6733   15.9799 H   0  0  0  0  0  0  0  0  0  0  0  0
   20.0776  -11.2203   16.4497 H   0  0  0  0  0  0  0  0  0  0  0  0
   18.8590  -11.3480   14.5620 H   0  0  0  0  0  0  0  0  0  0  0  0
   18.3745  -13.5821   13.8646 H   0  0  0  0  0  0  0  0  0  0  0  0
   19.0140  -13.1122   16.8182 H   0  0  0  0  0  0  0  0  0  0  0  0
   17.4175  -13.0416   15.9975 H   0  0  0  0  0  0  0  0  0  0  0  0
   19.1379  -15.5711   16.2386 H   0  0  0  0  0  0  0  0  0  0  0  0
   17.7696  -15.1636   17.3284 H   0  0  0  0  0  0  0  0  0  0  0  0
   16.4805  -16.2796   15.8116 H   0  0  0  0  0  0  0  0  0  0  0  0
   16.6515  -14.7977   14.8066 H   0  0  0  0  0  0  0  0  0  0  0  0
   18.7946  -16.9741   14.7053 H   0  0  0  0  0  0  0  0  0  0  0  0
   17.2760  -17.1480   13.7507 H   0  0  0  0  0  0  0  0  0  0  0  0
   18.3604  -15.9384   12.1576 H   0  0  0  0  0  0  0  0  0  0  0  0
   18.0208  -14.5248   13.2122 H   0  0  0  0  0  0  0  0  0  0  0  0
   20.4972  -16.2838   13.5753 H   0  0  0  0  0  0  0  0  0  0  0  0
   20.4810  -14.8580   12.4828 H   0  0  0  0  0  0  0  0  0  0  0  0
   20.2955  -14.9865   15.4995 H   0  0  0  0  0  0  0  0  0  0  0  0
   21.1955  -13.8384   14.4519 H   0  0  0  0  0  0  0  0  0  0  0  0
   20.5075  -12.8333    9.9699 H   0  0  0  0  0  0  0  0  0  0  0  0
   19.5559  -14.7574    8.7277 H   0  0  0  0  0  0  0  0  0  0  0  0
  1  2  1  0
  2  3  2  0
  3  4  1  0
  3  5  1  0
  5  6  2  0
  6  7  1  0
  7  8  2  0
  8  9  1  0
  9 10  1  0
 10 11  1  0
 11 12  2  0
 11 13  1  0
 13 14  1  0
 14 15  1  0
 15 16  1  0
 16 17  1  0
 17 18  1  0
 18 19  2  0
 18 20  1  0
 20 21  1  0
 21 22  1  0
 22 23  1  0
 23 24  1  0
 24 25  1  0
 25 26  1  0
 26 27  1  0
 27 28  1  0
 28 29  1  0
  8 30  1  0
 30 31  2  0
 31  5  1  0
 17 13  1  0
 29 22  1  0
  4 32  1  0
  4 33  1  0
  6 34  1  0
  7 35  1  0
  9 36  1  0
  9 37  1  0
 10 38  1  0
 13 39  1  1
 14 40  1  0
 14 41  1  0
 15 42  1  0
 15 43  1  0
 16 44  1  0
 16 45  1  0
 20 46  1  0
 20 47  1  0
 21 48  1  0
 22 49  1  0
 23 50  1  0
 23 51  1  0
 24 52  1  0
 24 53  1  0
 25 54  1  0
 25 55  1  0
 26 56  1  0
 26 57  1  0
 27 58  1  0
 27 59  1  0
 28 60  1  0
 28 61  1  0
 29 62  1  0
 29 63  1  0
 30 64  1  0
 31 65  1  0
M  END
$$$$

     RDKit          3D

 65 67  0  0  0  0  0  0  0  0999 V2000
   17.5120   -4.0710   10.4480 H   0  0  0  0  0  0  0  0  0  0  0  0
   17.6280   -5.0060   10.6800 N   0  0  0  0  0  0  0  0  0  0  0  0
   17.1410   -5.4650   11.7960 C   0  0  0  0  0  0  0  0  0  0  0  0
   16.4600   -4.6240   12.6490 N   0  0  0  0  0  0  0  0  0  0  0  0
   17.3180   -6.8930   12.1490 C   0  0  0  0  0  0  0  0  0  0  0  0
   18.3750   -7.6220   11.6060 C   0  0  0  0  0  0  0  0  0  0  0  0
   18.5390   -8.9500   11.9430 C   0  0  0  0  0  0  0  0  0  0  0  0
   17.6490   -9.5610   12.8080 C   0  0  0  0  0  0  0  0  0  0  0  0
   17.8290  -11.0150   13.1670 C   0  0  0  0  0  0  0  0  0  0  0  0
   18.1290  -11.7830   11.9560 N   0  0  0  0  0  0  0  0  0  0  0  0
   17.3040  -12.7740   11.5650 C   0  0  0  0  0  0  0  0  0  0  0  0
   16.3120  -13.0290   12.2150 O   0  0  0  0  0  0  0  0  0  0  0  0
   17.6160  -13.5670   10.3230 C   0  0  2  0  0  0  0  0  0  0  0  0
   16.3240  -13.8230    9.5080 C   0  0  0  0  0  0  0  0  0  0  0  0
   16.7070  -15.0980    8.7090 C   0  0  0  0  0  0  0  0  0  0  0  0
   17.5870  -15.8800    9.7070 C   0  0  0  0  0  0  0  0  0  0  0  0
   18.1080  -14.9110   10.6820 N   0  0  0  0  0  0  0  0  0  0  0  0
   18.9040  -15.2020   11.7310 C   0  0  0  0  0  0  0  0  0  0  0  0
   18.4250  -15.6610   12.7460 O   0  0  0  0  0  0  0  0  0  0  0  0
   20.3880  -14.9570   11.6410 C   0  0  0  0  0  0  0  0  0  0  0  0
   20.7570  -13.8520   12.5350 N   0  0  0  0  0  0  0  0  0  0  0  0
   21.7420  -12.9670   11.9000 C   0  0  0  0  0  0  0  0  0  0  0  0
   22.8580  -12.6480   12.8960 C   0  0  0  0  0  0  0  0  0  0  0  0
   24.0480  -12.0380   12.1520 C   0  0  0  0  0  0  0  0  0  0  0  0
   24.3030  -12.8260   10.8660 C   0  0  0  0  0  0  0  0  0  0  0  0
   23.7120  -12.0520    9.6690 C   0  0  0  0  0  0  0  0  0  0  0  0
   22.2670  -12.5020    9.4450 C   0  0  0  0  0  0  0  0  0  0  0  0
   21.3120  -11.4320    9.9770 C   0  0  0  0  0  0  0  0  0  0  0  0
   21.0580  -11.6690   11.4660 C   0  0  0  0  0  0  0  0  0  0  0  0
   16.5990   -8.8430   13.3500 C   0  0  0  0  0  0  0  0  0  0  0  0
   16.4280   -7.5130   13.0250 C   0  0  0  0  0  0  0  0  0  0  0  0
   16.0980   -4.9660   13.4810 H   0  0  0  0  0  0  0  0  0  0  0  0
   16.3450   -3.6890   12.4170 H   0  0  0  0  0  0  0  0  0  0  0  0
   19.0770   -7.1394   10.9101 H   0  0  0  0  0  0  0  0  0  0  0  0
   19.3786   -9.5236   11.5233 H   0  0  0  0  0  0  0  0  0  0  0  0
   18.6598  -11.1164   13.8808 H   0  0  0  0  0  0  0  0  0  0  0  0
   16.9044  -11.3972   13.6242 H   0  0  0  0  0  0  0  0  0  0  0  0
   18.9230  -11.5780   11.4370 H   0  0  0  0  0  0  0  0  0  0  0  0
   18.3596  -12.9896    9.7540 H   0  0  0  0  0  0  0  0  0  0  0  0
   15.4629  -14.0061   10.1676 H   0  0  0  0  0  0  0  0  0  0  0  0
   16.0168  -12.9753    8.8779 H   0  0  0  0  0  0  0  0  0  0  0  0
   15.8124  -15.6757    8.4333 H   0  0  0  0  0  0  0  0  0  0  0  0
   17.2175  -14.8783    7.7597 H   0  0  0  0  0  0  0  0  0  0  0  0
   16.9856  -16.6446   10.2205 H   0  0  0  0  0  0  0  0  0  0  0  0
   18.4108  -16.3886    9.1847 H   0  0  0  0  0  0  0  0  0  0  0  0
   20.9286  -15.8670   11.9404 H   0  0  0  0  0  0  0  0  0  0  0  0
   20.6543  -14.6959   10.6062 H   0  0  0  0  0  0  0  0  0  0  0  0
   19.9400  -13.3350   12.8260 H   0  0  0  0  0  0  0  0  0  0  0  0
   22.1696  -13.4675   11.0187 H   0  0  0  0  0  0  0  0  0  0  0  0
   22.4876  -11.9320   13.6445 H   0  0  0  0  0  0  0  0  0  0  0  0
   23.1757  -13.5733   13.3988 H   0  0  0  0  0  0  0  0  0  0  0  0
   23.8261  -10.9900   11.9021 H   0  0  0  0  0  0  0  0  0  0  0  0
   24.9417  -12.0808   12.7918 H   0  0  0  0  0  0  0  0  0  0  0  0
   25.3860  -12.9544   10.7222 H   0  0  0  0  0  0  0  0  0  0  0  0
   23.8255  -13.8143   10.9382 H   0  0  0  0  0  0  0  0  0  0  0  0
   23.7328  -10.9730    9.8818 H   0  0  0  0  0  0  0  0  0  0  0  0
   24.3072  -12.2552    8.7665 H   0  0  0  0  0  0  0  0  0  0  0  0
   22.0911  -12.6484    8.3691 H   0  0  0  0  0  0  0  0  0  0  0  0
   22.0908  -13.4484    9.9772 H   0  0  0  0  0  0  0  0  0  0  0  0
   21.7603  -10.4375    9.8354 H   0  0  0  0  0  0  0  0  0  0  0  0
   20.3594  -11.4865    9.4297 H   0  0  0  0  0  0  0  0  0  0  0  0
   21.4659  -10.8280   12.0459 H   0  0  0  0  0  0  0  0  0  0  0  0
   19.9755  -11.7474   11.6453 H   0  0  0  0  0  0  0  0  0  0  0  0
   15.8984   -9.3333   14.0419 H   0  0  0  0  0  0  0  0  0  0  0  0
   15.5916   -6.9432   13.4560 H   0  0  0  0  0  0  0  0  0  0  0  0
  1  2  1  0
  2  3  2  0
  3  4  1  0
  3  5  1  0
  5  6  2  0
  6  7  1  0
  7  8  2  0
  8  9  1  0
  9 10  1  0
 10 11  1  0
 11 12  2  0
 11 13  1  0
 13 14  1  0
 14 15  1  0
 15 16  1  0
 16 17  1  0
 17 18  1  0
 18 19  2  0
 18 20  1  0
 20 21  1  0
 21 22  1  0
 22 23  1  0
 23 24  1  0
 24 25  1  0
 25 26  1  0
 26 27  1  0
 27 28  1  0
 28 29  1  0
  8 30  1  0
 30 31  2  0
 31  5  1  0
 17 13  1  0
 29 22  1  0
  4 32  1  0
  4 33  1  0
  6 34  1  0
  7 35  1  0
  9 36  1  0
  9 37  1  0
 10 38  1  0
 13 39  1  6
 14 40  1  0
 14 41  1  0
 15 42  1  0
 15 43  1  0
 16 44  1  0
 16 45  1  0
 20 46  1  0
 20 47  1  0
 21 48  1  0
 22 49  1  0
 23 50  1  0
 23 51  1  0
 24 52  1  0
 24 53  1  0
 25 54  1  0
 25 55  1  0
 26 56  1  0
 26 57  1  0
 27 58  1  0
 27 59  1  0
 28 60  1  0
 28 61  1  0
 29 62  1  0
 29 63  1  0
 30 64  1  0
 31 65  1  0
M  END
$$$$

     RDKit          3D

 65 67  0  0  0  0  0  0  0  0999 V2000
   19.2730  -15.6820   14.0010 H   0  0  0  0  0  0  0  0  0  0  0  0
   18.8970  -14.8090   14.1970 N   0  0  0  0  0  0  0  0  0  0  0  0
   17.6650  -14.7080   14.6040 C   0  0  0  0  0  0  0  0  0  0  0  0
   16.8950  -15.8390   14.7580 N   0  0  0  0  0  0  0  0  0  0  0  0
   17.0910  -13.3750   14.9020 C   0  0  0  0  0  0  0  0  0  0  0  0
   17.7650  -12.4980   15.7510 C   0  0  0  0  0  0  0  0  0  0  0  0
   17.2290  -11.2550   16.0210 C   0  0  0  0  0  0  0  0  0  0  0  0
   16.0200  -10.8830   15.4600 C   0  0  0  0  0  0  0  0  0  0  0  0
   15.4360   -9.5270   15.7650 C   0  0  0  0  0  0  0  0  0  0  0  0
   16.2980   -8.4870   15.2010 N   0  0  0  0  0  0  0  0  0  0  0  0
   15.9580   -7.8830   14.0450 C   0  0  0  0  0  0  0  0  0  0  0  0
   14.9360   -8.2010   13.4720 O   0  0  0  0  0  0  0  0  0  0  0  0
   16.8470   -6.8160   13.4620 C   0  0  2  0  0  0  0  0  0  0  0  0
   16.0380   -5.8990   12.5110 C   0  0  0  0  0  0  0  0  0  0  0  0
   17.1550   -5.3460   11.5860 C   0  0  0  0  0  0  0  0  0  0  0  0
   18.1170   -6.5450   11.4520 C   0  0  0  0  0  0  0  0  0  0  0  0
   17.8850   -7.4230   12.6080 N   0  0  0  0  0  0  0  0  0  0  0  0
   18.5160   -8.5900   12.8480 C   0  0  0  0  0  0  0  0  0  0  0  0
   19.3670   -8.6520   13.7090 O   0  0  0  0  0  0  0  0  0  0  0  0
   18.1650   -9.8160   12.0460 C   0  0  0  0  0  0  0  0  0  0  0  0
   18.8230  -10.9910   12.6320 N   0  0  0  0  0  0  0  0  0  0  0  0
   18.8660  -12.1030   11.6750 C   0  0  0  0  0  0  0  0  0  0  0  0
   20.2420  -12.1480   11.0070 C   0  0  0  0  0  0  0  0  0  0  0  0
   20.1070  -12.7320    9.5990 C   0  0  0  0  0  0  0  0  0  0  0  0
   20.0590  -14.2590    9.6840 C   0  0  0  0  0  0  0  0  0  0  0  0
   18.6010  -14.7280    9.5020 C   0  0  0  0  0  0  0  0  0  0  0  0
   17.8020  -14.3950   10.7640 C   0  0  0  0  0  0  0  0  0  0  0  0
   16.9310  -13.1640   10.5040 C   0  0  0  0  0  0  0  0  0  0  0  0
   17.7880  -11.9010   10.6080 C   0  0  0  0  0  0  0  0  0  0  0  0
   15.3470  -11.7500   14.6180 C   0  0  0  0  0  0  0  0  0  0  0  0
   15.8760  -12.9930   14.3360 C   0  0  0  0  0  0  0  0  0  0  0  0
   15.9760  -15.7630   15.0610 H   0  0  0  0  0  0  0  0  0  0  0  0
   17.2710  -16.7120   14.5630 H   0  0  0  0  0  0  0  0  0  0  0  0
   18.7218  -12.7961   16.2046 H   0  0  0  0  0  0  0  0  0  0  0  0
   17.7640  -10.5587   16.6835 H   0  0  0  0  0  0  0  0  0  0  0  0
   14.4322   -9.4518   15.3214 H   0  0  0  0  0  0  0  0  0  0  0  0
   15.3659   -9.3944   16.8547 H   0  0  0  0  0  0  0  0  0  0  0  0
   17.1150   -8.2330   15.6590 H   0  0  0  0  0  0  0  0  0  0  0  0
   17.2765   -6.2610   14.3090 H   0  0  0  0  0  0  0  0  0  0  0  0
   15.2912   -6.4710   11.9408 H   0  0  0  0  0  0  0  0  0  0  0  0
   15.4576   -5.1199   13.0269 H   0  0  0  0  0  0  0  0  0  0  0  0
   16.7488   -5.0532   10.6066 H   0  0  0  0  0  0  0  0  0  0  0  0
   17.6401   -4.4423   11.9834 H   0  0  0  0  0  0  0  0  0  0  0  0
   17.9120   -7.0896   10.5185 H   0  0  0  0  0  0  0  0  0  0  0  0
   19.1626   -6.2043   11.4254 H   0  0  0  0  0  0  0  0  0  0  0  0
   17.0748   -9.9623   12.0585 H   0  0  0  0  0  0  0  0  0  0  0  0
   18.5062   -9.6848   11.0085 H   0  0  0  0  0  0  0  0  0  0  0  0
   19.7490  -10.7590   12.9600 H   0  0  0  0  0  0  0  0  0  0  0  0
   18.6840  -13.0495   12.2051 H   0  0  0  0  0  0  0  0  0  0  0  0
   20.6522  -11.1293   10.9436 H   0  0  0  0  0  0  0  0  0  0  0  0
   20.9180  -12.7793   11.6024 H   0  0  0  0  0  0  0  0  0  0  0  0
   19.1811  -12.3611    9.1352 H   0  0  0  0  0  0  0  0  0  0  0  0
   20.9700  -12.4251    8.9899 H   0  0  0  0  0  0  0  0  0  0  0  0
   20.6871  -14.6921    8.8916 H   0  0  0  0  0  0  0  0  0  0  0  0
   20.4350  -14.5880   10.6640 H   0  0  0  0  0  0  0  0  0  0  0  0
   18.1546  -14.2139    8.6380 H   0  0  0  0  0  0  0  0  0  0  0  0
   18.5819  -15.8142    9.3293 H   0  0  0  0  0  0  0  0  0  0  0  0
   17.1610  -15.2489   11.0285 H   0  0  0  0  0  0  0  0  0  0  0  0
   18.4944  -14.1868   11.5930 H   0  0  0  0  0  0  0  0  0  0  0  0
   16.4954  -13.2294    9.4960 H   0  0  0  0  0  0  0  0  0  0  0  0
   16.1241  -13.1218   11.2504 H   0  0  0  0  0  0  0  0  0  0  0  0
   18.2655  -11.7009    9.6375 H   0  0  0  0  0  0  0  0  0  0  0  0
   17.1518  -11.0479   10.8862 H   0  0  0  0  0  0  0  0  0  0  0  0
   14.3879  -11.4479   14.1722 H   0  0  0  0  0  0  0  0  0  0  0  0
   15.3398  -13.6810   13.6658 H   0  0  0  0  0  0  0  0  0  0  0  0
  1  2  1  0
  2  3  2  0
  3  4  1  0
  3  5  1  0
  5  6  2  0
  6  7  1  0
  7  8  2  0
  8  9  1  0
  9 10  1  0
 10 11  1  0
 11 12  2  0
 11 13  1  0
 13 14  1  0
 14 15  1  0
 15 16  1  0
 16 17  1  0
 17 18  1  0
 18 19  2  0
 18 20  1  0
 20 21  1  0
 21 22  1  0
 22 23  1  0
 23 24  1  0
 24 25  1  0
 25 26  1  0
 26 27  1  0
 27 28  1  0
 28 29  1  0
  8 30  1  0
 30 31  2  0
 31  5  1  0
 17 13  1  0
 29 22  1  0
  4 32  1  0
  4 33  1  0
  6 34  1  0
  7 35  1  0
  9 36  1  0
  9 37  1  0
 10 38  1  0
 13 39  1  1
 14 40  1  0
 14 41  1  0
 15 42  1  0
 15 43  1  0
 16 44  1  0
 16 45  1  0
 20 46  1  0
 20 47  1  0
 21 48  1  0
 22 49  1  0
 23 50  1  0
 23 51  1  0
 24 52  1  0
 24 53  1  0
 25 54  1  0
 25 55  1  0
 26 56  1  0
 26 57  1  0
 27 58  1  0
 27 59  1  0
 28 60  1  0
 28 61  1  0
 29 62  1  0
 29 63  1  0
 30 64  1  0
 31 65  1  0
M  END
$$$$

